server/uncc-corvid/examples/GridPACK/dynamic_simulation_full_y/300bus_v23_no0imp_pslf.raw
0  100.000
 13/05/91 CYME INTERNATIONAL    100.0 1991 S
 IEEE 300-BUS TEST SYSTEM, MODIFIED BY PNNL IN SEPT. OF 2016
      1, 1,    90.000,    49.000,  0.000000,  0.000000,   1,1.028110, 7.093303,'1           ',115.0000,   1
      2, 1,    56.000,    15.000,  0.000000,  0.000000,   1,1.035060, 8.846204,'2           ',115.0000,   1
      3, 1,    20.000,     0.000,  0.000000,  0.000000,   1,0.996540, 7.785003,'3           ',230.0000,   1
      4, 1,     0.000,     0.000,  0.000000,  0.000000,   1,1.030220, 5.777503,'4           ',345.0000,   1
      5, 1,   353.000,   130.000,  0.000000,  0.000000,   1,1.018780, 5.826502,'5           ',115.0000,   1
      6, 1,   120.000,    41.000,  0.000000,  0.000000,   1,1.030880, 8.107403,'6           ',115.0000,   1
      7, 1,     0.000,     0.000,  0.000000,  0.000000,   1,0.992900, 7.350803,'7           ',230.0000,   1
      8, 1,    58.000,    14.000,  0.000000,  0.000000,   1,1.014840, 3.451602,'8           ',115.0000,   1
      9, 1,    96.000,    43.000,  0.000000,  0.000000,   1,1.003090, 3.978302,'9           ',115.0000,   1
     10, 1,   148.000,    33.000,  0.000000,  0.000000,   1,1.020070, 2.477601,'10          ',230.0000,   1
     11, 1,    83.000,    21.000,  0.000000,  0.000000,   1,1.005420, 3.572801,'11          ',115.0000,   1
     12, 1,     0.000,     0.000,  0.000000,  0.000000,   1,0.996920, 6.360203,'12          ',230.0000,   1
     13, 1,    58.000,    10.000,  0.000000,  0.000000,   1,0.997320, 0.559400,'13          ',115.0000,   1
     14, 1,   160.000,    60.000,  0.000000,  0.000000,   1,0.998500,-3.892402,'14          ',115.0000,   1
     15, 1,   126.700,    23.000,  0.000000,  0.000000,   1,1.033940,-7.790504,'15          ',115.0000,   1
     16, 1,     0.000,     0.000,  0.000000,  0.000000,   1,1.031290,-1.871801,'16          ',345.0000,   1
     17, 1,   561.000,   220.000,  0.000000,  0.000000,   1,1.064470,-12.313805,'17          ',115.0000,   1
     19, 1,     0.000,     0.000,  0.000000,  0.000000,   1,0.981370, 2.174501,'19          ',230.0000,   1
     20, 1,   595.000,   120.000,  0.000000,  0.000000,   1,1.000530,-1.345600,'20          ',115.0000,   1
     21, 1,    77.000,     1.000,  0.000000,  0.000000,   1,0.974710, 2.740601,'21          ',230.0000,   1
     22, 1,    81.000,    23.000,  0.000000,  0.000000,   1,0.995870,-0.858800,'22          ',115.0000,   1
     23, 1,    21.000,     7.000,  0.000000,  0.000000,   1,1.049970, 5.053702,'23          ',115.0000,   1
     24, 1,     0.000,     0.000,  0.000000,  0.000000,   1,1.005410, 7.139303,'24          ',230.0000,   1
     25, 1,    45.000,    12.000,  0.000000,  0.000000,   1,1.023190, 2.554601,'25          ',115.0000,   1
     26, 1,    28.000,     9.000,  0.000000,  0.000000,   1,0.998340,-0.620000,'26          ',115.0000,   1
     27, 1,    69.000,    13.000,  0.000000,  0.000000,   1,0.974700,-3.783201,'27          ',115.0000,   1
     33, 1,    55.000,     6.000,  0.000000,  0.000000,   1,1.025970,-11.568604,'33          ',115.0000,   1
     34, 1,     0.000,     0.000,  0.000000,  0.000000,   1,1.042960,-7.490304,'34          ',345.0000,   1
     35, 1,     0.000,     0.000,  0.000000,  0.000000,   1,0.990560,-25.460112,'35          ',115.0000,   1
     36, 1,     0.000,     0.000,  0.000000,  0.000000,   1,1.013750,-22.391607,'36          ',230.0000,   1
     37, 1,    85.000,    32.000,  0.000000,  0.000000,   1,1.021000,-10.725103,'37          ',115.0000,   1
     38, 1,   155.000,    18.000,  0.000000,  0.000000,   1,1.021810,-12.111805,'38          ',115.0000,   1
     39, 1,     0.000,     0.000,  0.000000,  0.000000,   1,1.054850,-5.368202,'39          ',345.0000,   1
     40, 1,    46.000,   -21.000,  0.000000,  0.000000,   1,1.022890,-12.299805,'40          ',115.0000,   1
     41, 1,    86.000,     0.000,  0.000000,  0.000000,   1,1.030520,-9.997304,'41          ',115.0000,   1
     42, 1,     0.000,     0.000,  0.000000,  0.000000,   1,1.046470,-6.998803,'42          ',345.0000,   1
     43, 1,    39.000,     9.000,  0.000000,  0.000000,   1,1.004500,-16.545607,'43          ',115.0000,   1
     44, 1,   195.000,    29.000,  0.000000,  0.000000,   1,1.014890,-17.370306,'44          ',115.0000,   1
     45, 1,     0.000,     0.000,  0.000000,  0.000000,   1,1.028620,-14.710806,'45          ',230.0000,   1
     46, 1,     0.000,     0.000,  0.000000,  0.000000,   1,1.038360,-11.506404,'46          ',345.0000,   1
     47, 1,    58.000,    11.800,  0.000000,  0.000000,   1,0.988950,-22.954510,'47          ',115.0000,   1
     48, 1,    41.000,    19.000,  0.000000,  0.000000,   1,1.003270,-15.577307,'48          ',115.0000,   1
     49, 1,    92.000,    26.000,  0.000000,  0.000000,   1,1.047750,-2.479201,'49          ',115.0000,   1
     51, 1,    -5.000,     5.000,  0.000000,  0.000000,   1,1.026230,-7.806803,'51          ',115.0000,   1
     52, 1,    61.000,    28.000,  0.000000,  0.000000,   1,0.999570,-11.797705,'52          ',115.0000,   1
     53, 1,    69.000,     3.000,  0.000000,  0.000000,   1,1.000060,-17.417507,'53          ',115.0000,   1
     54, 1,    10.000,     1.000,  0.000000,  0.000000,   1,1.009510,-16.189705,'54          ',115.0000,   1
     55, 1,    22.000,    10.000,  0.000000,  0.000000,   1,1.017470,-12.361705,'55          ',115.0000,   1
     57, 1,    98.000,    20.000,  0.000000,  0.000000,   1,1.034140,-8.932104,'57          ',115.0000,   1
     58, 1,    14.000,     1.000,  0.000000,  0.000000,   1,0.991720,-7.273403,'58          ',115.0000,   1
     59, 1,   218.000,   106.000,  0.000000,  0.000000,   1,0.978800,-6.677402,'59          ',115.0000,   1
     60, 1,     0.000,     0.000,  0.000000,  0.000000,   1,1.031000,-10.192604,'60          ',230.0000,   1
     61, 1,   227.000,   110.000,  0.000000,  0.000000,   1,0.990740,-4.910102,'61          ',115.0000,   1
     62, 1,     0.000,     0.000,  0.000000,  0.000000,   1,1.017620,-2.753701,'62          ',230.0000,   1
     63, 1,    70.000,    30.000,  0.000000,  0.000000,   1,0.958270,-19.099009,'63          ',115.0000,   1
     64, 1,     0.000,     0.000,  0.000000,  0.000000,   1,0.948600,-14.486905,'64          ',230.0000,   1
     69, 1,     0.000,     0.000,  0.000000,  0.000000,   1,1.007200,-26.138409,'69          ',115.0000,   1
     70, 1,    56.000,    20.000,  0.000000,  0.000000,   1,1.022830,-34.831116,'70          ',115.0000,   1
     71, 1,   116.000,  -126.282,  0.000000,  0.000000,   1,1.047440,-30.225512,'71          ',115.0000,   1
     72, 1,    57.000,    19.000,  0.000000,  0.000000,   1,0.995600,-27.299612,'72          ',115.0000,   1
     73, 1,   224.000,    71.000,  0.000000,  0.000000,   1,0.998190,-25.570309,'73          ',115.0000,   1
     74, 1,     0.000,     0.000,  0.000000,  0.000000,   1,1.011060,-21.878708,'74          ',230.0000,   1
     76, 1,   208.000,   107.000,  0.000000,  0.000000,   1,0.976910,-26.215012,'76          ',115.0000,   1
     77, 1,    74.000,    28.000,  0.000000,  0.000000,   1,0.997430,-24.687309,'77          ',115.0000,   1
     78, 1,     0.000,     0.000,  0.000000,  0.000000,   1,1.002750,-23.814709,'78          ',115.0000,   1
     79, 1,    48.000,    14.000,  0.000000,  0.000000,   1,0.999350,-24.790310,'79          ',115.0000,   1
     80, 1,    28.000,     7.000,  0.000000,  0.000000,   1,0.998250,-24.688709,'80          ',115.0000,   1
     81, 1,     0.000,     0.000,  0.000000,  0.000000,   1,1.041490,-18.681007,'81          ',345.0000,   1
     84, 1,    37.000,    13.000,  0.000000,  0.000000,   1,1.024900,-17.015005,'84          ',115.0000,   1
     85, 1,     0.000,     0.000,  0.000000,  0.000000,   1,0.987050,-16.937105,'85          ',230.0000,   1
     86, 1,     0.000,     0.000,  0.000000,  0.000000,   1,0.990580,-13.396105,'86          ',230.0000,   1
     87, 1,     0.000,     0.000,  0.000000,  0.000000,   1,0.991400,-6.848403,'87          ',230.0000,   1
     88, 1,     0.000,     0.000,  0.000000,  0.000000,   1,1.026320,-20.771410,'88          ',230.0000,   1
     89, 1,    44.200,     0.000,  0.000000,  0.000000,   1,1.031760,-10.427904,'89          ',115.0000,   1
     90, 1,    66.000,     0.000,  0.000000,  0.000000,   1,1.027610,-10.622004,'90          ',115.0000,   1
     91, 1,    17.400,     0.000,  0.000000,  0.000000,   1,1.051950,-8.647903,'91          ',115.0000,   1
     92, 1,    15.800,     0.000,  0.000000,  0.000000,   1,1.051970,-5.557003,'92          ',115.0000,   1
     94, 1,    60.300,     0.000,  0.000000,  0.000000,   1,0.992670,-8.535404,'94          ',115.0000,   1
     97, 1,    39.900,     0.000,  0.000000,  0.000000,   1,1.018210,-12.487405,'97          ',115.0000,   1
     98, 1,    66.700,     0.000,  0.000000,  0.000000,   1,1.000010,-13.846005,'98          ',115.0000,   1
     99, 1,    83.500,     0.000,  0.000000,  0.000000,   1,0.989490,-19.562908,'99          ',115.0000,   1
    100, 1,     0.000,     0.000,  0.000000,  0.000000,   1,1.005980,-13.687606,'100         ',115.0000,   1
    102, 1,    77.800,     0.000,  0.000000,  0.000000,   1,1.000690,-14.467006,'102         ',115.0000,   1
    103, 1,    32.000,     0.000,  0.000000,  0.000000,   1,1.028960,-11.396204,'103         ',115.0000,   1
    104, 1,     8.600,     0.000,  0.000000,  0.000000,   1,0.995710,-16.578907,'104         ',115.0000,   1
    105, 1,    49.600,     0.000,  0.000000,  0.000000,   1,1.022740,-12.302404,'105         ',115.0000,   1
    107, 1,     4.600,     0.000,  0.000000,  0.000000,   1,1.010350,-15.427506,'107         ',115.0000,   1
    108, 1,   112.100,     0.000,  0.000000,  0.000000,   1,0.989980,-19.546507,'108         ',115.0000,   1
    109, 1,    30.700,     0.000,  0.000000,  0.000000,   1,0.980410,-25.467110,'109         ',115.0000,   1
    110, 1,    63.000,     0.000,  0.000000,  0.000000,   1,0.976390,-24.068510,'110         ',115.0000,   1
    112, 1,    19.600,     0.000,  0.000000,  0.000000,   1,0.981700,-28.072912,'112         ',115.0000,   1
    113, 1,    26.200,     0.000,  0.000000,  0.000000,   1,0.979660,-25.025410,'113         ',115.0000,   1
    114, 1,    18.200,     0.000,  0.000000,  0.000000,   1,0.984410,-27.979311,'114         ',115.0000,   1
    115, 1,     0.000,     0.000,  0.000000,  0.000000,   2,0.952320,10.822104,'115         ',115.0000,   2
    116, 1,     0.000,     0.000,  0.000000,  0.000000,   2,1.031220,18.114906,'116         ',115.0000,   2
    117, 1,     0.000,  -472.001,  0.000000,  0.000000,   2,0.972830,21.970707,'117         ',115.0000,   2
    118, 1,    14.100,   650.000,  0.000000,  0.000000,   2,0.958830,23.603210,'118         ',115.0000,   2
    119, 1,    99.593,    35.751,  0.000000,  0.000000,   2,1.042570,37.639614,'119         ',115.0000,   2
    120, 1,  -100.000,  -123.510,  0.000000,  0.000000,   2,1.035200,36.511517,'120         ',115.0000,   2
    121, 1,   535.000,    55.000,  0.000000,  0.000000,   2,0.941690,14.176406,'121         ',115.0000,   2
    122, 1,   229.100,    11.800,  0.000000,  0.000000,   2,0.954770, 8.377304,'122         ',115.0000,   2
    123, 1,    78.000,     1.400,  0.000000,  0.000000,   2,0.980040, 4.277502,'123         ',115.0000,   2
    124, 1,   276.400,    59.300,  0.000000,  0.000000,   2,1.015550,14.879605,'124         ',115.0000,   2
    125, 1,   514.800,    82.700,  0.000000,  0.000000,   2,1.006230,-5.325802,'125         ',115.0000,   2
    126, 1,    57.899,  -197.172,  0.000000,  0.000000,   2,1.004830,-1.223800,'126         ',115.0000,   2
    127, 1,   380.800,    37.000,  0.000000,  0.000000,   2,1.005240,-6.214303,'127         ',230.0000,   2
    128, 1,     0.000,     0.000,  0.000000,  0.000000,   2,1.004770,-4.267702,'128         ',230.0000,   2
    129, 1,     0.000,     0.000,  0.000000,  0.000000,   2,1.004760,-3.468102,'129         ',230.0000,   2
    130, 1,     0.000,     0.000,  0.000000,  0.000000,   2,1.018640, 6.958402,'130         ',230.0000,   2
    131, 1,     0.000,     0.000,  0.000000,  0.000000,   2,0.985770, 7.283703,'131         ',230.0000,   2
    132, 1,     0.000,     0.000,  0.000000,  0.000000,   2,1.005090, 5.220102,'132         ',230.0000,   2
    133, 1,     0.000,     0.000,  0.000000,  0.000000,   2,1.003210,-6.435203,'133         ',230.0000,   2
    134, 1,     0.000,     0.000,  0.000000,  0.000000,   2,1.028320,-5.387902,'134         ',230.0000,   2
    135, 1,   169.200,    41.600,  0.000000,  0.000000,   2,1.028430,-5.527102,'135         ',230.0000,   2
    136, 1,    55.200,    18.200,  0.000000,  0.000000,   2,1.055150,-0.298800,'136         ',230.0000,   2
    137, 1,   273.600,    99.800,  0.000000,  0.000000,   2,1.045200,-6.422403,'137         ',230.0000,   2
    138, 1,   826.525,   134.426,  0.000000,  0.000000,   2,1.053000,-15.840807,'138         ',230.0000,   2
    139, 1,   595.000,    83.300,  0.000000,  0.000000,   2,1.011010,-8.321404,'139         ',115.0000,   2
    140, 1,   387.700,   114.700,  0.000000,  0.000000,   2,1.041720,-8.207503,'140         ',230.0000,   2
    141, 1,   145.000,    58.000,  0.000000,  0.000000,   2,1.050930,-4.496202,'141         ',230.0000,   2
    142, 1,    56.500,    24.500,  0.000000,  0.000000,   2,1.015460,-6.653003,'142         ',230.0000,   2
    143, 1,    89.597,    36.095,  0.000000,  0.000000,   2,1.043500, 0.559100,'143         ',230.0000,   2
    144, 1,     0.000,     0.000,  0.000000,  0.000000,   2,1.017410,-2.492901,'144         ',230.0000,   2
    145, 1,    24.000,    14.000,  0.000000,  0.000000,   2,1.011830,-3.925802,'145         ',230.0000,   2
    146, 1,     0.000,     0.000,  0.000000,  0.000000,   2,1.052770, 0.215700,'146         ',230.0000,   2
    147, 1,     0.000,     0.000,  0.000000,  0.000000,   2,1.052850, 4.174501,'147         ',230.0000,   2
    148, 1,    62.999,  -119.713,  0.000000,  0.000000,   2,1.098150,-3.371501,'148         ',230.0000,   2
    149, 1,     0.000,     0.000,  0.000000,  0.000000,   2,1.073450, 1.650701,'149         ',230.0000,   2
    150, 1,     0.000,     0.000,  0.000000,  0.000000,   2,0.986550, 7.565903,'150         ',230.0000,   2
    151, 1,     0.000,     0.000,  0.000000,  0.000000,   2,1.002920, 5.657202,'151         ',230.0000,   2
    152, 1,    17.000,     9.000,  0.000000,  0.000000,   2,1.060860, 6.878003,'152         ',230.0000,   2
    153, 1,     0.000,     0.000,  0.000000,  0.000000,   2,1.046990, 7.071303,'153         ',230.0000,   2
    154, 1,    70.000,   -91.939,  0.000000,  0.000000,   2,1.071000,-6.976703,'154         ',115.0000,   2
    155, 1,   200.000,    50.000,  0.000000,  0.000000,   2,1.018710, 2.815301,'155         ',230.0000,   2
    156, 1,    75.000,    50.000,  0.000000,  0.000000,   2,0.964780, 1.276901,'156         ',115.0000,   2
    157, 1,   123.500,   -24.300,  0.000000,  0.000000,   2,0.959720, 9.863503,'157         ',230.0000,   2
    158, 1,     0.000,     0.000,  0.000000,  0.000000,   2,0.978160, 9.554904,'158         ',230.0000,   2
    159, 1,    33.000,    16.500,  0.000000,  0.000000,   2,0.955970,13.641706,'159         ',230.0000,   2
    160, 1,     0.000,     0.000,  0.000000,  0.000000,   2,0.989110,12.444705,'160         ',230.0000,   2
    161, 1,    35.000,    15.000,  0.000000,  0.000000,   2,1.038600, 5.277702,'161         ',230.0000,   2
    162, 1,    85.000,    24.000,  0.000000,  0.000000,   2,0.991470,14.365905,'162         ',230.0000,   2
    163, 1,     0.000,     0.400,  0.000000,  0.000000,   2,1.038160,-1.719701,'163         ',230.0000,   2
    164, 1,     0.000,   205.080,  0.000000,  0.000000,   2,0.983490, 5.519902,'164         ',230.0000,   2
    165, 1,     0.000,     0.000,  0.000000,  0.000000,   2,0.999950,22.178408,'165         ',230.0000,   2
    166, 1,    -0.001,   102.397,  0.000000,  0.000000,   2,0.997040,26.092010,'166         ',230.0000,   2
    167, 1,   299.900,    95.700,  0.000000,  0.000000,   2,0.972110,-5.952202,'167         ',230.0000,   2
    168, 1,     0.000,     0.000,  0.000000,  0.000000,   2,1.004810,-4.292602,'168         ',230.0000,   2
    169, 1,     0.000,     0.000,  0.000000,  0.000000,   2,0.989090,-5.825303,'169         ',230.0000,   2
    170, 1,   481.800,   100.000,  0.000000,  0.000000,   2,0.922740, 1.916901,'170         ',115.0000,   2
    171, 1,   763.600,   291.100,  0.000000,  0.000000,   2,0.982750,-10.903805,'171         ',115.0000,   2
    172, 1,    26.500,     0.000,  0.000000,  0.000000,   2,1.024700,-10.761405,'172         ',115.0000,   2
    173, 1,   163.500,    -8.360,  0.000000,  0.000000,   2,0.984400,-16.897108,'173         ',115.0000,   2
    174, 1,     0.000,     0.000,  0.000000,  0.000000,   2,1.062330,-7.189303,'174         ',115.0000,   2
    175, 1,   176.000,    83.000,  0.000000,  0.000000,   2,0.976350,-11.043203,'175         ',115.0000,   2
    176, 1,     5.000,     4.000,  0.000000,  0.000000,   2,1.052160, 0.993400,'176         ',115.0000,   2
    177, 1,    28.000,    12.000,  0.000000,  0.000000,   2,1.007680,-2.940701,'177         ',115.0000,   2
    178, 1,   427.400,   173.600,  0.000000,  0.000000,   2,0.950030,-10.086704,'178         ',115.0000,   2
    179, 1,    74.000,   -14.784,  0.000000,  0.000000,   2,0.986390,-12.830706,'179         ',115.0000,   2
    180, 1,    69.500,    49.300,  0.000000,  0.000000,   2,0.985520,-6.759102,'180         ',115.0000,   2
    181, 1,    73.400,     0.000,  0.000000,  0.000000,   2,1.048420,-6.934603,'181         ',230.0000,   2
    182, 1,   240.700,    89.000,  0.000000,  0.000000,   2,1.043570,-8.955503,'182         ',230.0000,   2
    183, 1,    40.000,     4.000,  0.000000,  0.000000,   2,0.992080, 3.460301,'183         ',115.0000,   2
    184, 1,   136.800,    16.600,  0.000000,  0.000000,   2,1.041030,-4.178401,'184         ',230.0000,   2
    185, 1,     0.000,     0.000,  0.000000,  0.000000,   2,1.052180,-1.656101,'185         ',230.0000,   2
    186, 1,    59.658,    25.442,  0.000000,  0.000000,   2,1.064710,-3.169701,'186         ',230.0000,   2
    187, 1,    59.396,    25.377,  0.000000,  0.000000,   2,1.064640,-4.186202,'187         ',230.0000,   2
    188, 1,   182.600,    43.600,  0.000000,  0.000000,   2,1.050460,-6.276503,'188         ',230.0000,   2
    189, 1,     7.000,     2.000,  0.000000,  0.000000,   3,1.007490,-25.537212,'189         ', 66.0000,   3
    190, 1,     0.207,   167.522,  0.000000,  0.000000,   3,1.055110,-20.663008,'190         ',345.0000,   3
    191, 1,   488.380,    54.767,  0.000000,  0.000000,   3,1.042770,12.014305,'191         ',230.0000,   3
    192, 1,   800.000,    72.000,  0.000000,  0.000000,   3,0.938460,-11.406404,'192         ',230.0000,   3
    193, 1,     0.000,     0.000,  0.000000,  0.000000,   3,1.010980,-25.707909,'192         ', 66.0000,   3
    194, 1,     0.000,     0.000,  0.000000,  0.000000,   3,1.054730,-18.988708,'194         ',345.0000,   3
    195, 1,     0.000,     0.000,  0.000000,  0.000000,   3,1.041580,-20.539209,'195         ',345.0000,   3
    196, 1,    10.000,     3.000,  0.000000,  0.000000,   3,0.980240,-25.144409,'196         ',115.0000,   3
    197, 1,    43.000,    14.000,  0.000000,  0.000000,   3,0.997160,-23.500410,'197         ',115.0000,   3
    198, 1,    64.000,    21.000,  0.000000,  0.000000,   3,1.014930,-20.477510,'198         ',115.0000,   3
    199, 1,    35.000,    12.000,  0.000000,  0.000000,   3,0.958050,-25.841509,'199         ',115.0000,   3
    200, 1,    27.000,    12.000,  0.000000,  0.000000,   3,0.959780,-25.705711,'200         ',115.0000,   3
    201, 1,    41.000,   -40.984,  0.000000,  0.000000,   1,1.049670,-28.045511,'201         ', 66.0000,   1
    202, 1,    38.000,    13.000,  0.000000,  0.000000,   3,0.987210,-23.774410,'202         ', 66.0000,   3
    203, 1,    42.000,    14.000,  0.000000,  0.000000,   3,1.006370,-22.163210,'203         ',115.0000,   3
    204, 1,    72.000,    24.000,  0.000000,  0.000000,   3,1.009010,-25.556511,'204         ', 66.0000,   3
    205, 1,     0.000,    -5.000,  0.000000,  0.000000,   3,1.011850,-25.779909,'205         ', 66.0000,   3
    206, 1,    12.000,     2.000,  0.000000,  0.000000,   3,1.015000,-26.884611,'206         ', 66.0000,   3
    207, 1,   -21.000,   -14.200,  0.000000,  0.000000,   1,1.027070,-26.838612,'207         ', 66.0000,   1
    208, 1,     7.000,     2.000,  0.000000,  0.000000,   3,1.007730,-25.908110,'208         ', 66.0000,   3
    209, 1,    38.000,    13.000,  0.000000,  0.000000,   3,1.007170,-25.345610,'209         ', 66.0000,   3
    210, 1,     0.000,     0.000,  0.000000,  0.000000,   3,0.984240,-24.050709,'210         ',115.0000,   3
    211, 1,    96.000,     7.000,  0.000000,  0.000000,   3,1.008480,-23.013809,'211         ',115.0000,   3
    212, 1,     0.000,     0.000,  0.000000,  0.000000,   3,1.019260,-22.219009,'212         ',138.0000,   3
    213, 1,     0.000,     0.000,  0.000000,  0.000000,   3,1.009950,-11.385404,'213         ', 16.5000,   3
    214, 1,    22.000,    16.000,  0.000000,  0.000000,   3,0.992400,-17.243406,'214         ',138.0000,   3
    215, 1,    47.000,    26.000,  0.000000,  0.000000,   3,0.988440,-19.942207,'215         ',138.0000,   3
    216, 1,   176.000,   105.000,  0.000000,  0.000000,   3,0.977290,-22.236809,'216         ',138.0000,   3
    217, 1,   100.000,    75.000,  0.000000,  0.000000,   3,1.024190,-21.919109,'217         ',138.0000,   3
    218, 1,   131.000,    96.000,  0.000000,  0.000000,   3,1.009950,-22.345009,'218         ',138.0000,   3
    219, 1,     0.000,     0.000,  0.000000,  0.000000,   3,1.059500,-20.891508,'219         ',345.0000,   3
    220, 1,   285.000,   100.000,  0.000000,  0.000000,   3,1.007970,-21.413410,'220         ',138.0000,   3
    221, 1,   171.000,    70.000,  0.000000,  0.000000,   3,0.999850,-22.265408,'221         ',138.0000,   3
...
0 / END OF GENERATOR DATA, BEGIN BRANCH DATA
      1,      5,'1 ',  0.00100,  0.00600,  0.00000, 756.99, 984.08,   0.00,0.00000,000.000, 0.00000, 0.00000, 0.00000, 0.00000, 1
      2,      6,'1 ',  0.00100,  0.00900,  0.00000, 294.90, 383.38,   0.00,0.00000,000.000, 0.00000, 0.00000, 0.00000, 0.00000, 1
      2,      8,'1 ',  0.00600,  0.02700,  0.05400, 672.44, 874.17,   0.00,0.00000,000.000, 0.00000, 0.00000, 0.00000, 0.00000, 1
      3,      1,'1 ',  0.00000,  0.05200,  0.00000, 508.30, 660.79,   0.00,0.947000,0.000000,0.000000,0.000000,00.00000,00.00000, 1
      3,      2,'1 ',  0.00000,  0.05200,  0.00000, 243.48, 316.53,   0.00,0.956000,0.000000,0.000000,0.000000,00.00000,00.00000, 1
      3,      4,'1 ',  0.00000,  0.00500,  0.00000,1098.54,1428.11,   0.00,0.971000,0.000000,0.000000,0.000000,00.00000,00.00000, 1
      3,      7,'1 ',  0.00000,  0.00300,  0.00000, 543.03, 705.94,   0.00,0.00000,000.000, 0.00000, 0.00000, 0.00000, 0.00000, 1
      3,     19,'1 ',  0.00800,  0.06900,  0.13900, 400.15, 520.20,   0.00,0.00000,000.000, 0.00000, 0.00000, 0.00000, 0.00000, 1
      3,    150,'1 ',  0.00100,  0.00700,  0.00000, 706.70, 918.71,   0.00,0.00000,000.000, 0.00000, 0.00000, 0.00000, 0.00000, 1
      4,     16,'1 ',  0.00200,  0.01900,  1.12700,1200.04,1560.05,   0.00,0.00000,000.000, 0.00000, 0.00000, 0.00000, 0.00000, 1
      5,      9,'1 ',  0.00600,  0.02900,  0.01800, 193.71, 251.82,   0.00,0.00000,000.000, 0.00000, 0.00000, 0.00000, 0.00000, 1
      7,      5,'1 ',  0.00000,  0.03900,  0.00000, 442.61, 575.39,   0.00,0.948000,0.000000,0.000000,0.000000,00.00000,00.00000, 1
      7,      6,'1 ',  0.00000,  0.03900,  0.00000, 262.88, 341.74,   0.00,0.959000,0.000000,0.000000,0.000000,00.00000,00.00000, 1
      7,     12,'1 ',  0.00100,  0.00900,  0.07000, 362.29, 470.98,   0.00,0.00000,000.000, 0.00000, 0.00000, 0.00000, 0.00000, 1
      7,    131,'1 ',  0.00100,  0.00700,  0.01400, 614.65, 799.04,   0.00,0.00000,000.000, 0.00000, 0.00000, 0.00000, 0.00000, 1
      8,     11,'1 ',  0.01300,  0.05950,  0.03300, 262.38, 341.09,   0.00,0.00000,000.000, 0.00000, 0.00000, 0.00000, 0.00000, 1
      8,     14,'1 ',  0.01300,  0.04200,  0.08100, 559.22, 726.99,   0.00,0.00000,000.000, 0.00000, 0.00000, 0.00000, 0.00000, 1
      9,     11,'1 ',  0.00600,  0.02700,  0.01300, 162.09, 210.72,   0.00,0.00000,000.000, 0.00000, 0.00000, 0.00000, 0.00000, 1
     10,     11,'1 ',  0.00000,  0.08900,  0.00000, 231.00, 300.31,   0.00,1.046000,0.000000,0.000000,0.000000,00.00000,00.00000, 1
     11,     13,'1 ',  0.00800,  0.03400,  0.01800, 480.36, 624.46,   0.00,0.00000,000.000, 0.00000, 0.00000, 0.00000, 0.00000, 1
     12,     10,'1 ',  0.00000,  0.05300,  0.00000, 194.69, 253.10,   0.00,0.985000,0.000000,0.000000,0.000000,00.00000,00.00000, 1
     12,     21,'1 ',  0.00200,  0.01500,  0.11800, 794.77,1033.20,   0.00,0.00000,000.000, 0.00000, 0.00000, 0.00000, 0.00000, 1
     13,     20,'1 ',  0.00600,  0.03400,  0.01600, 303.42, 394.44,   0.00,0.00000,000.000, 0.00000, 0.00000, 0.00000, 0.00000, 1
     14,     15,'1 ',  0.01400,  0.04200,  0.09700, 696.53, 905.49,   0.00,0.00000,000.000, 0.00000, 0.00000, 0.00000, 0.00000, 1
     15,     17,'1 ',  0.01940,  0.03110,  0.00000, 831.64,1081.13,   0.00,0.956100,0.000000,0.000000,0.000000,00.00000,00.00000, 1
     15,     37,'1 ',  0.06500,  0.24800,  0.12100, 146.69, 190.70,   0.00,0.00000,000.000, 0.00000, 0.00000, 0.00000, 0.00000, 1
     15,     89,'1 ',  0.09900,  0.24800,  0.03500,  85.59, 111.26,   0.00,0.00000,000.000, 0.00000, 0.00000, 0.00000, 0.00000, 1
     15,     90,'1 ',  0.09600,  0.36300,  0.04800,  85.35, 110.95,   0.00,0.00000,000.000, 0.00000, 0.00000, 0.00000, 0.00000, 1
     16,     15,'1 ',  0.00100,  0.03800,  0.00000, 780.80,1015.04,   0.00,0.971000,0.000000,0.000000,0.000000,00.00000,00.00000, 1
     16,     42,'1 ',  0.00200,  0.02200,  1.28000, 808.78,1051.41,   0.00,0.00000,000.000, 0.00000, 0.00000, 0.00000, 0.00000, 1
     19,     21,'1 ',  0.00200,  0.01800,  0.03600, 258.39, 335.91,   0.00,0.00000,000.000, 0.00000, 0.00000, 0.00000, 0.00000, 1
     19,     87,'1 ',  0.01300,  0.08000,  0.15100, 376.94, 490.02,   0.00,0.00000,000.000, 0.00000, 0.00000, 0.00000, 0.00000, 1
     20,     22,'1 ',  0.01600,  0.03300,  0.01500, 241.98, 314.57,   0.00,0.00000,000.000, 0.00000, 0.00000, 0.00000, 0.00000, 1
     20,     27,'1 ',  0.06900,  0.18600,  0.09800, 323.54, 420.61,   0.00,0.00000,000.000, 0.00000, 0.00000, 0.00000, 0.00000, 1
     21,     20,'1 ',  0.00000,  0.01400,  0.00000, 733.93, 954.10,   0.00,0.952000,0.000000,0.000000,0.000000,00.00000,00.00000, 1
     21,     24,'1 ',  0.00400,  0.03400,  0.28000, 373.69, 485.80,   0.00,0.00000,000.000, 0.00000, 0.00000, 0.00000, 0.00000, 1
     22,     23,'1 ',  0.05200,  0.11100,  0.05000, 388.72, 505.33,   0.00,0.00000,000.000, 0.00000, 0.00000, 0.00000, 0.00000, 1
     23,     25,'1 ',  0.01900,  0.03900,  0.01800, 231.91, 301.49,   0.00,0.00000,000.000, 0.00000, 0.00000, 0.00000, 0.00000, 1
     24,     23,'1 ',  0.00000,  0.06400,  0.00000, 393.02, 510.93,   0.00,0.943000,0.000000,0.000000,0.000000,00.00000,00.00000, 1
     24,    319,'1 ',  0.00700,  0.06800,  0.13400, 208.98, 271.67,   0.00,0.00000,000.000, 0.00000, 0.00000, 0.00000, 0.00000, 1
     25,     26,'1 ',  0.03600,  0.07100,  0.03400, 143.60, 186.68,   0.00,0.00000,000.000, 0.00000, 0.00000, 0.00000, 0.00000, 1
     26,     27,'1 ',  0.04500,  0.12000,  0.06500,  82.26, 106.94,   0.00,0.00000,000.000, 0.00000, 0.00000, 0.00000, 0.00000, 1
     26,    320,'1 ',  0.04300,  0.13000,  0.01400,  30.00,  39.00,   0.00,0.00000,000.000, 0.00000, 0.00000, 0.00000, 0.00000, 1
     33,     34,'1 ',  0.00000,  0.06300,  0.00000, 222.93, 289.81,   0.00,0.00000,000.000, 0.00000, 0.00000, 0.00000, 0.00000, 1
     33,     38,'1 ',  0.00250,  0.01200,  0.01300, 164.63, 214.01,   0.00,0.00000,000.000, 0.00000, 0.00000, 0.00000, 0.00000, 1
     33,     40,'1 ',  0.00600,  0.02900,  0.02000,  81.79, 106.32,   0.00,0.00000,000.000, 0.00000, 0.00000, 0.00000, 0.00000, 1
     33,     41,'1 ',  0.00700,  0.04300,  0.02600, 134.83, 175.28,   0.00,0.00000,000.000, 0.00000, 0.00000, 0.00000, 0.00000, 1
     34,     42,'1 ',  0.00100,  0.00800,  0.04200, 202.68, 263.49,   0.00,0.00000,000.000, 0.00000, 0.00000, 0.00000, 0.00000, 1
     35,     72,'1 ',  0.01200,  0.06000,  0.00800, 133.07, 173.00,   0.00,0.00000,000.000, 0.00000, 0.00000, 0.00000, 0.00000, 1
     35,     76,'1 ',  0.00600,  0.01400,  0.00200, 185.71, 241.42,   0.00,0.00000,000.000, 0.00000, 0.00000, 0.00000, 0.00000, 1
     35,     77,'1 ',  0.01000,  0.02900,  0.00300,  77.27, 100.46,   0.00,0.00000,000.000, 0.00000, 0.00000, 0.00000, 0.00000, 1
     36,     35,'1 ',  0.00000,  0.04700,  0.00000, 341.56, 444.03,   0.00,1.010000,0.000000,0.000000,0.000000,00.00000,00.00000, 1
     36,     88,'1 ',  0.00400,  0.02700,  0.04300, 357.03, 464.15,   0.00,0.00000,000.000, 0.00000, 0.00000, 0.00000, 0.00000, 1
     37,     38,'1 ',  0.00800,  0.04700,  0.00800, 145.12, 188.66,   0.00,0.00000,000.000, 0.00000, 0.00000, 0.00000, 0.00000, 1
     37,     40,'1 ',  0.02200,  0.06400,  0.00700,  73.35,  95.35,   0.00,0.00000,000.000, 0.00000, 0.00000, 0.00000, 0.00000, 1
     37,     41,'1 ',  0.01000,  0.03600,  0.02000, 200.13, 260.17,   0.00,0.00000,000.000, 0.00000, 0.00000, 0.00000, 0.00000, 1
     37,     49,'1 ',  0.01700,  0.08100,  0.04800, 359.55, 467.41,   0.00,0.00000,000.000, 0.00000, 0.00000, 0.00000, 0.00000, 1
     37,     89,'1 ',  0.10200,  0.25400,  0.03300,  57.65,  74.94,   0.00,0.00000,000.000, 0.00000, 0.00000, 0.00000, 0.00000, 1
     37,     90,'1 ',  0.04700,  0.12700,  0.01600,  96.75, 125.77,   0.00,0.00000,000.000, 0.00000, 0.00000, 0.00000, 0.00000, 1
     37,   9001,'1 ',  0.00006,  0.00046,  0.00000, 113.19, 147.15,  75.00,1.003670,0.000000,0.000000,0.000000,00.00000,00.00000, 1
     38,     41,'1 ',  0.00800,  0.03700,  0.02000, 209.19, 271.95,   0.00,0.00000,000.000, 0.00000, 0.00000, 0.00000, 0.00000, 1
     38,     43,'1 ',  0.03200,  0.08700,  0.04000, 141.56, 184.03,   0.00,0.00000,000.000, 0.00000, 0.00000, 0.00000, 0.00000, 1
     39,     42,'1 ',  0.00060,  0.00640,  0.40400, 809.05,1051.77,   0.00,0.00000,000.000, 0.00000, 0.00000, 0.00000, 0.00000, 1
     40,     48,'1 ',  0.02600,  0.15400,  0.02200,  73.02,  94.92,   0.00,0.00000,000.000, 0.00000, 0.00000, 0.00000, 0.00000, 1
     41,     42,'1 ',  0.00000,  0.02900,  0.00000, 320.06, 416.07,   0.00,0.00000,000.000, 0.00000, 0.00000, 0.00000, 0.00000, 1
     41,     49,'1 ',  0.06500,  0.19100,  0.02000, 134.34, 174.64,   0.00,0.00000,000.000, 0.00000, 0.00000, 0.00000, 0.00000, 1
     41,     51,'1 ',  0.03100,  0.08900,  0.03600, 172.48, 224.22,   0.00,0.00000,000.000, 0.00000, 0.00000, 0.00000, 0.00000, 1
     42,     46,'1 ',  0.00200,  0.01400,  0.80600,1176.14,1528.99,   0.00,0.00000,000.000, 0.00000, 0.00000, 0.00000, 0.00000, 1
     43,     44,'1 ',  0.02600,  0.07200,  0.03500, 131.89, 171.46,   0.00,0.00000,000.000, 0.00000, 0.00000, 0.00000, 0.00000, 1
     43,     48,'1 ',  0.09500,  0.26200,  0.03200,  30.00,  39.00,   0.00,0.00000,000.000, 0.00000, 0.00000, 0.00000, 0.00000, 1
     43,     53,'1 ',  0.01300,  0.03900,  0.01600,  71.18,  92.53,   0.00,0.00000,000.000, 0.00000, 0.00000, 0.00000, 0.00000, 1
     44,     47,'1 ',  0.02700,  0.08400,  0.03900, 218.06, 283.47,   0.00,0.00000,000.000, 0.00000, 0.00000, 0.00000, 0.00000, 1
     44,     54,'1 ',  0.02800,  0.08400,  0.03700, 102.49, 133.24,   0.00,0.00000,000.000, 0.00000, 0.00000, 0.00000, 0.00000, 1
     45,     44,'1 ',  0.00000,  0.02000,  0.00000, 367.04, 477.16,   0.00,1.008000,0.000000,0.000000,0.000000,00.00000,00.00000, 1
     45,     46,'1 ',  0.00000,  0.02100,  0.00000, 640.72, 832.94,   0.00,1.000000,0.000000,0.000000,0.000000,00.00000,00.00000, 1
     45,     60,'1 ',  0.00700,  0.04100,  0.31200, 336.41, 437.34,   0.00,0.00000,000.000, 0.00000, 0.00000, 0.00000, 0.00000, 1
     45,     74,'1 ',  0.00900,  0.05400,  0.41100, 731.95, 951.54,   0.00,0.00000,000.000, 0.00000, 0.00000, 0.00000, 0.00000, 1
     46,     81,'1 ',  0.00500,  0.04200,  0.69000, 579.94, 753.93,   0.00,0.00000,000.000, 0.00000, 0.00000, 0.00000, 0.00000, 1
     47,     73,'1 ',  0.05200,  0.14500,  0.07300, 105.31, 136.90,   0.00,0.00000,000.000, 0.00000, 0.00000, 0.00000, 0.00000, 1
     47,    113,'1 ',  0.04300,  0.11800,  0.01300,  43.78,  56.91,   0.00,0.00000,000.000, 0.00000, 0.00000, 0.00000, 0.00000, 1
     48,    107,'1 ',  0.02500,  0.06200,  0.00700,  72.96,  94.85,   0.00,0.00000,000.000, 0.00000, 0.00000, 0.00000, 0.00000, 1
     49,     51,'1 ',  0.03100,  0.09400,  0.04300, 174.26, 226.54,   0.00,0.00000,000.000, 0.00000, 0.00000, 0.00000, 0.00000, 1
     51,     52,'1 ',  0.03700,  0.10900,  0.04900, 114.87, 149.33,   0.00,0.00000,000.000, 0.00000, 0.00000, 0.00000, 0.00000, 1
     52,     55,'1 ',  0.02700,  0.08000,  0.03600,  77.25, 100.43,   0.00,0.00000,000.000, 0.00000, 0.00000, 0.00000, 0.00000, 1
     53,     54,'1 ',  0.02500,  0.07300,  0.03500,  91.85, 119.40,   0.00,0.00000,000.000, 0.00000, 0.00000, 0.00000, 0.00000, 1
     54,     55,'1 ',  0.03500,  0.10300,  0.04700, 119.98, 155.97,   0.00,0.00000,000.000, 0.00000, 0.00000, 0.00000, 0.00000, 1
     55,     57,'1 ',  0.06500,  0.16900,  0.08200, 143.84, 186.99,   0.00,0.00000,000.000, 0.00000, 0.00000, 0.00000, 0.00000, 1
     57,     58,'1 ',  0.04600,  0.08000,  0.03600, 102.18, 132.83,   0.00,0.00000,000.000, 0.00000, 0.00000, 0.00000, 0.00000, 1
     57,     63,'1 ',  0.15900,  0.53700,  0.07100,  64.54,  83.90,   0.00,0.00000,000.000, 0.00000, 0.00000, 0.00000, 0.00000, 1
     58,     59,'1 ',  0.00900,  0.02600,  0.00500,  99.40, 129.22,   0.00,0.00000,000.000, 0.00000, 0.00000, 0.00000, 0.00000, 1
     59,     61,'1 ',  0.00200,  0.01300,  0.01500, 372.08, 483.71,   0.00,0.00000,000.000, 0.00000, 0.00000, 0.00000, 0.00000, 1
     60,     62,'1 ',  0.00900,  0.06500,  0.48500, 348.49, 453.04,   0.00,0.00000,000.000, 0.00000, 0.00000, 0.00000, 0.00000, 1
     62,     61,'1 ',  0.00000,  0.05900,  0.00000, 162.61, 211.39,   0.00,0.975000,0.000000,0.000000,0.000000,00.00000,00.00000, 1
     62,     64,'1 ',  0.01600,  0.10500,  0.20300, 343.83, 446.98,   0.00,0.00000,000.000, 0.00000, 0.00000, 0.00000, 0.00000, 1
     62,    144,'1 ',  0.00100,  0.00700,  0.01300, 295.77, 384.51,   0.00,0.00000,000.000, 0.00000, 0.00000, 0.00000, 0.00000, 1
     63,     64,'1 ',  0.00000,  0.03800,  0.00000, 281.67, 366.17,   0.00,1.017000,0.000000,0.000000,0.000000,00.00000,00.00000, 1
     63,    526,'1 ',  0.02650,  0.17200,  0.02600, 249.29, 324.08,   0.00,0.00000,000.000, 0.00000, 0.00000, 0.00000, 0.00000, 1
     69,     79,'1 ',  0.05100,  0.15700,  0.02300,  82.14, 106.78,   0.00,0.00000,000.000, 0.00000, 0.00000, 0.00000, 0.00000, 1
     69,    211,'1 ',  0.05100,  0.23200,  0.02800,  40.70,  52.91,   0.00,0.00000,000.000, 0.00000, 0.00000, 0.00000, 0.00000, 1
     70,     71,'1 ',  0.03200,  0.10000,  0.06200, 168.96, 219.64,   0.00,0.00000,000.000, 0.00000, 0.00000, 0.00000, 0.00000, 1
     70,    528,'1 ',  0.02000,  0.12340,  0.02800,  60.27,  78.36,   0.00,0.00000,000.000, 0.00000, 0.00000, 0.00000, 0.00000, 1
     71,     72,'1 ',  0.03600,  0.13100,  0.06800, 285.83, 371.58,   0.00,0.00000,000.000, 0.00000, 0.00000, 0.00000, 0.00000, 1
     71,     73,'1 ',  0.03400,  0.09900,  0.04700, 185.84, 241.60,   0.00,0.00000,000.000, 0.00000, 0.00000, 0.00000, 0.00000, 1
     72,     77,'1 ',  0.01800,  0.08700,  0.01100,  95.99, 124.78,   0.00,0.00000,000.000, 0.00000, 0.00000, 0.00000, 0.00000, 1
     72,    531,'1 ',  0.02560,  0.19300,  0.00000,  30.00,  39.00,   0.00,0.00000,000.000, 0.00000, 0.00000, 0.00000, 0.00000, 1
     73,     74,'1 ',  0.00000,  0.02440,  0.00000, 333.75, 433.88,   0.00,1.000000,0.000000,0.000000,0.000000,00.00000,00.00000, 1
     73,     76,'1 ',  0.02100,  0.05700,  0.03000, 190.07, 247.09,   0.00,0.00000,000.000, 0.00000, 0.00000, 0.00000, 0.00000, 1
     73,     79,'1 ',  0.01800,  0.05200,  0.01800, 313.02, 406.93,   0.00,0.00000,000.000, 0.00000, 0.00000, 0.00000, 0.00000, 1
     74,     88,'1 ',  0.00400,  0.02700,  0.05000, 339.61, 441.49,   0.00,0.00000,000.000, 0.00000, 0.00000, 0.00000, 0.00000, 1
     74,    562,'1 ',  0.02860,  0.20130,  0.37900, 106.91, 138.98,   0.00,0.00000,000.000, 0.00000, 0.00000, 0.00000, 0.00000, 1
     76,     77,'1 ',  0.01600,  0.04300,  0.00400, 122.13, 158.77,   0.00,0.00000,000.000, 0.00000, 0.00000, 0.00000, 0.00000, 1
     77,     78,'1 ',  0.00100,  0.00600,  0.00700, 495.03, 643.54,   0.00,0.00000,000.000, 0.00000, 0.00000, 0.00000, 0.00000, 1
     77,     80,'1 ',  0.01400,  0.07000,  0.03800,  81.55, 106.01,   0.00,0.00000,000.000, 0.00000, 0.00000, 0.00000, 0.00000, 1
     77,    552,'1 ',  0.08910,  0.26760,  0.02900,  30.00,  39.00,   0.00,0.00000,000.000, 0.00000, 0.00000, 0.00000, 0.00000, 1
     77,    609,'1 ',  0.07820,  0.21270,  0.02200,  57.20,  74.36,   0.00,0.00000,000.000, 0.00000, 0.00000, 0.00000, 0.00000, 1
     78,     79,'1 ',  0.00600,  0.02200,  0.01100, 409.58, 532.46,   0.00,0.00000,000.000, 0.00000, 0.00000, 0.00000, 0.00000, 1
     78,     84,'1 ',  0.00000,  0.03600,  0.00000, 694.72, 903.14,   0.00,0.00000,000.000, 0.00000, 0.00000, 0.00000, 0.00000, 1
     79,    211,'1 ',  0.09900,  0.37500,  0.05100,  30.00,  39.00,   0.00,0.00000,000.000, 0.00000, 0.00000, 0.00000, 0.00000, 1
     80,    211,'1 ',  0.02200,  0.10700,  0.05800, 148.68, 193.28,   0.00,0.00000,000.000, 0.00000, 0.00000, 0.00000, 0.00000, 1
     81,     88,'1 ',  0.00000,  0.02000,  0.00000, 287.48, 373.72,   0.00,1.000000,0.000000,0.000000,0.000000,00.00000,00.00000, 1
     81,    194,'1 ',  0.00350,  0.03300,  0.53000, 357.00, 464.10,   0.00,0.00000,000.000, 0.00000, 0.00000, 0.00000, 0.00000, 1
     81,    195,'1 ',  0.00350,  0.03300,  0.53000, 458.48, 596.02,   0.00,0.00000,000.000, 0.00000, 0.00000, 0.00000, 0.00000, 1
     85,     86,'1 ',  0.00800,  0.06400,  0.12800, 150.49, 195.64,   0.00,0.00000,000.000, 0.00000, 0.00000, 0.00000, 0.00000, 1
     85,     99,'1 ',  0.00000,  0.04800,  0.00000, 122.33, 159.02,   0.00,1.000000,0.000000,0.000000,0.000000,00.00000,00.00000, 1
     86,     87,'1 ',  0.01200,  0.09300,  0.18300, 195.01, 253.51,   0.00,0.00000,000.000, 0.00000, 0.00000, 0.00000, 0.00000, 1
     86,    102,'1 ',  0.00000,  0.04800,  0.00000, 121.80, 158.34,   0.00,1.000000,0.000000,0.000000,0.000000,00.00000,00.00000, 1
     86,    323,'1 ',  0.00600,  0.04800,  0.09200,  51.80,  67.34,   0.00,0.00000,000.000, 0.00000, 0.00000, 0.00000, 0.00000, 1
     87,     94,'1 ',  0.00000,  0.04600,  0.00000, 211.79, 275.33,   0.00,1.015000,0.000000,0.000000,0.000000,00.00000,00.00000, 1
     89,     91,'1 ',  0.04700,  0.11900,  0.01400, 126.88, 164.95,   0.00,0.00000,000.000, 0.00000, 0.00000, 0.00000, 0.00000, 1
     90,     92,'1 ',  0.03200,  0.17400,  0.02400, 108.02, 140.43,   0.00,0.00000,000.000, 0.00000, 0.00000, 0.00000, 0.00000, 1
     91,     94,'1 ',  0.10000,  0.25300,  0.03100,  91.27, 118.65,   0.00,0.00000,000.000, 0.00000, 0.00000, 0.00000, 0.00000, 1
     91,     97,'1 ',  0.02200,  0.07700,  0.03900, 167.85, 218.20,   0.00,0.00000,000.000, 0.00000, 0.00000, 0.00000, 0.00000, 1
     92,    103,'1 ',  0.01900,  0.14400,  0.01700, 139.00, 180.70,   0.00,0.00000,000.000, 0.00000, 0.00000, 0.00000, 0.00000, 1
     92,    105,'1 ',  0.01700,  0.09200,  0.01200, 218.68, 284.28,   0.00,0.00000,000.000, 0.00000, 0.00000, 0.00000, 0.00000, 1
     94,     97,'1 ',  0.27800,  0.42700,  0.04300,  58.28,  75.77,   0.00,0.00000,000.000, 0.00000, 0.00000, 0.00000, 0.00000, 1
     97,    100,'1 ',  0.02200,  0.05300,  0.00700,  68.12,  88.55,   0.00,0.00000,000.000, 0.00000, 0.00000, 0.00000, 0.00000, 1
     97,    102,'1 ',  0.03800,  0.09200,  0.01200,  73.49,  95.54,   0.00,0.00000,000.000, 0.00000, 0.00000, 0.00000, 0.00000, 1
     97,    103,'1 ',  0.04800,  0.12200,  0.01500,  74.42,  96.75,   0.00,0.00000,000.000, 0.00000, 0.00000, 0.00000, 0.00000, 1
     98,    100,'1 ',  0.02400,  0.06400,  0.00700,  62.32,  81.01,   0.00,0.00000,000.000, 0.00000, 0.00000, 0.00000, 0.00000, 1
     98,    102,'1 ',  0.03400,  0.12100,  0.01500,  30.00,  39.00,   0.00,0.00000,000.000, 0.00000, 0.00000, 0.00000, 0.00000, 1
     99,    107,'1 ',  0.05300,  0.13500,  0.01700,  82.88, 107.74,   0.00,0.00000,000.000, 0.00000, 0.00000, 0.00000, 0.00000, 1
     99,    108,'1 ',  0.00200,  0.00400,  0.00200, 118.84, 154.49,   0.00,0.00000,000.000, 0.00000, 0.00000, 0.00000, 0.00000, 1
     99,    109,'1 ',  0.04500,  0.35400,  0.04400,  55.01,  71.52,   0.00,0.00000,000.000, 0.00000, 0.00000, 0.00000, 0.00000, 1
     99,    110,'1 ',  0.05000,  0.17400,  0.02200,  77.58, 100.86,   0.00,0.00000,000.000, 0.00000, 0.00000, 0.00000, 0.00000, 1
    100,    102,'1 ',  0.01600,  0.03800,  0.00400,  70.35,  91.46,   0.00,0.00000,000.000, 0.00000, 0.00000, 0.00000, 0.00000, 1
    102,    104,'1 ',  0.04300,  0.06400,  0.02700,  91.09, 118.41,   0.00,0.00000,000.000, 0.00000, 0.00000, 0.00000, 0.00000, 1
    103,    105,'1 ',  0.01900,  0.06200,  0.00800, 160.84, 209.09,   0.00,0.00000,000.000, 0.00000, 0.00000, 0.00000, 0.00000, 1
    104,    108,'1 ',  0.07600,  0.13000,  0.04400,  67.92,  88.29,   0.00,0.00000,000.000, 0.00000, 0.00000, 0.00000, 0.00000, 1
    104,    322,'1 ',  0.04400,  0.12400,  0.01500,  30.00,  39.00,   0.00,0.00000,000.000, 0.00000, 0.00000, 0.00000, 0.00000, 1
    105,    107,'1 ',  0.01200,  0.08800,  0.01100, 131.08, 170.40,   0.00,0.00000,000.000, 0.00000, 0.00000, 0.00000, 0.00000, 1
    105,    110,'1 ',  0.15700,  0.40000,  0.04700,  76.81,  99.86,   0.00,0.00000,000.000, 0.00000, 0.00000, 0.00000, 0.00000, 1
    108,    324,'1 ',  0.07400,  0.20800,  0.02600,  48.88,  63.54,   0.00,0.00000,000.000, 0.00000, 0.00000, 0.00000, 0.00000, 1
    109,    110,'1 ',  0.07000,  0.18400,  0.02100,  30.00,  39.00,   0.00,0.00000,000.000, 0.00000, 0.00000, 0.00000, 0.00000, 1
    109,    113,'1 ',  0.10000,  0.27400,  0.03100,  30.00,  39.00,   0.00,0.00000,000.000, 0.00000, 0.00000, 0.00000, 0.00000, 1
    109,    114,'1 ',  0.10900,  0.39300,  0.03600,  30.00,  39.00,   0.00,0.00000,000.000, 0.00000, 0.00000, 0.00000, 0.00000, 1
    110,    112,'1 ',  0.14200,  0.40400,  0.05000,  30.00,  39.00,   0.00,0.00000,000.000, 0.00000, 0.00000, 0.00000, 0.00000, 1
    112,    114,'1 ',  0.01700,  0.04200,  0.00600,  30.00,  39.00,   0.00,0.00000,000.000, 0.00000, 0.00000, 0.00000, 0.00000, 1
    114,    207,'1 ',  0.00000,  0.14900,  0.00000,  30.00,  39.00,   0.00,0.967000,0.000000,0.000000,0.000000,00.00000,00.00000, 1
    115,    122,'1 ',  0.00360,  0.01990,  0.00400, 637.85, 829.20,   0.00,0.00000,000.000, 0.00000, 0.00000, 0.00000, 0.00000, 1
    116,    120,'1 ',  0.00200,  0.10490,  0.00100, 542.52, 705.27,   0.00,0.00000,000.000, 0.00000, 0.00000, 0.00000, 0.00000, 1
    116,    124,'1 ',  0.00520,  0.01740,  0.00000, 458.64, 596.23,   0.00,1.010000,0.000000,0.000000,0.000000,00.00000,00.00000, 1
    117,    118,'1 ',  0.00010,  0.00300,  0.01700,1895.76,2464.49,   0.00,0.00000,000.000, 0.00000, 0.00000, 0.00000, 0.00000, 1
    118,    119,'1 ',  0.00000,  0.02710,  0.00000,1894.40,2462.73,   0.00,0.00000,000.000, 0.00000, 0.00000, 0.00000, 0.00000, 1
    118,    121,'1 ',  0.00220,  0.29150,  0.00000,  96.42, 125.35,   0.00,0.00000,000.000, 0.00000, 0.00000, 0.00000, 0.00000, 1
    118,   1201,'1 ',  0.00000,  0.61630,  0.00000,  76.05,  98.86,   0.00,0.00000,000.000, 0.00000, 0.00000, 0.00000, 0.00000, 1
    119,    120,'1 ',  0.00000,  0.03390,  0.00000, 320.70, 416.91,   0.00,0.00000,000.000, 0.00000, 0.00000, 0.00000, 0.00000, 1
    119,    121,'1 ',  0.00000,  0.05820,  0.00000,1255.96,1632.75,   0.00,0.00000,000.000, 0.00000, 0.00000, 0.00000, 0.00000, 1
    119,   1190,'1 ',  0.00100,  0.02300,  0.00000, 192.94, 250.82,   0.00,0.00000,000.000, 0.00000, 0.00000, 0.00000, 0.00000, 1
    120,   1200,'1 ',  0.00000,  0.02300,  0.00000, 164.26, 213.54,   0.00,0.00000,000.000, 0.00000, 0.00000, 0.00000, 0.00000, 1
    120,   1201,'1 ',  0.00000, -0.06970,  0.00000,  73.75,  95.88,   0.00,0.00000,000.000, 0.00000, 0.00000, 0.00000, 0.00000, 1
    121,    115,'1 ',  0.00000,  0.02800,  0.00000, 634.15, 824.39,   0.00,1.000000,0.000000,0.000000,0.000000,00.00000,00.00000, 1
    122,    123,'1 ',  0.08080,  0.23440,  0.02900, 121.30, 157.69,   0.00,0.00000,000.000, 0.00000, 0.00000, 0.00000, 0.00000, 1
    122,    125,'1 ',  0.09650,  0.36690,  0.05400, 121.65, 158.15,   0.00,0.00000,000.000, 0.00000, 0.00000, 0.00000, 0.00000, 1
    122,    157,'1 ',  0.00050,  0.01950,  0.00000, 316.27, 411.15,   0.00,1.000000,0.000000,0.000000,0.000000,00.00000,00.00000, 1
    123,    124,'1 ',  0.03600,  0.10760,  0.11700, 321.54, 418.00,   0.00,0.00000,000.000, 0.00000, 0.00000, 0.00000, 0.00000, 1
    123,    125,'1 ',  0.04760,  0.14140,  0.14900, 221.65, 288.14,   0.00,0.00000,000.000, 0.00000, 0.00000, 0.00000, 0.00000, 1
    125,    126,'1 ',  0.00060,  0.01970,  0.00000, 696.33, 905.23,   0.00,0.00000,000.000, 0.00000, 0.00000, 0.00000, 0.00000, 1
    126,    127,'1 ',  0.00590,  0.04050,  0.25000, 416.01, 540.81,   0.00,0.00000,000.000, 0.00000, 0.00000, 0.00000, 0.00000, 1
    126,    129,'1 ',  0.01150,  0.11060,  0.18500, 193.88, 252.04,   0.00,0.00000,000.000, 0.00000, 0.00000, 0.00000, 0.00000, 1
    126,    132,'1 ',  0.01980,  0.16880,  0.32100, 124.51, 161.86,   0.00,0.00000,000.000, 0.00000, 0.00000, 0.00000, 0.00000, 1
    126,    157,'1 ',  0.00500,  0.05000,  0.33000, 578.54, 752.10,   0.00,0.00000,000.000, 0.00000, 0.00000, 0.00000, 0.00000, 1
    126,    158,'1 ',  0.00770,  0.05380,  0.33500, 534.89, 695.35,   0.00,0.00000,000.000, 0.00000, 0.00000, 0.00000, 0.00000, 1
    126,    169,'1 ',  0.01650,  0.11570,  0.17100, 146.11, 189.94,   0.00,0.00000,000.000, 0.00000, 0.00000, 0.00000, 0.00000, 1
    127,    128,'1 ',  0.00590,  0.05770,  0.09500, 195.24, 253.82,   0.00,0.00000,000.000, 0.00000, 0.00000, 0.00000, 0.00000, 1
    127,    134,'1 ',  0.00490,  0.03360,  0.20800, 221.17, 287.52,   0.00,0.00000,000.000, 0.00000, 0.00000, 0.00000, 0.00000, 1
    127,    168,'1 ',  0.00590,  0.05770,  0.09500, 233.97, 304.16,   0.00,0.00000,000.000, 0.00000, 0.00000, 0.00000, 0.00000, 1
    128,    130,'1 ',  0.00780,  0.07730,  0.12600, 464.96, 604.45,   0.00,0.00000,000.000, 0.00000, 0.00000, 0.00000, 0.00000, 1
    128,    133,'1 ',  0.00260,  0.01930,  0.03000, 359.50, 467.35,   0.00,0.00000,000.000, 0.00000, 0.00000, 0.00000, 0.00000, 1
    129,    130,'1 ',  0.00760,  0.07520,  0.12200, 378.09, 491.51,   0.00,0.00000,000.000, 0.00000, 0.00000, 0.00000, 0.00000, 1
    129,    133,'1 ',  0.00210,  0.01860,  0.03000, 515.04, 669.55,   0.00,0.00000,000.000, 0.00000, 0.00000, 0.00000, 0.00000, 1
    130,    131,'1 ',  0.00000,  0.01800,  0.00000, 550.40, 715.52,   0.00,1.052200,0.000000,0.000000,0.000000,00.00000,00.00000, 1
    130,    132,'1 ',  0.00160,  0.01640,  0.02600, 358.15, 465.59,   0.00,0.00000,000.000, 0.00000, 0.00000, 0.00000, 0.00000, 1
    130,    150,'1 ',  0.00000,  0.01400,  0.00000, 752.36, 978.06,   0.00,1.052200,0.000000,0.000000,0.000000,00.00000,00.00000, 1
    130,    151,'1 ',  0.00170,  0.01650,  0.02600, 262.02, 340.62,   0.00,0.00000,000.000, 0.00000, 0.00000, 0.00000, 0.00000, 1
    130,    167,'1 ',  0.00790,  0.07930,  0.12700, 512.99, 666.89,   0.00,0.00000,000.000, 0.00000, 0.00000, 0.00000, 0.00000, 1
    130,    168,'1 ',  0.00780,  0.07840,  0.12500, 412.96, 536.85,   0.00,0.00000,000.000, 0.00000, 0.00000, 0.00000, 0.00000, 1
    132,    170,'1 ',  0.00100,  0.04020,  0.00000, 431.11, 560.44,   0.00,1.050000,0.000000,0.000000,0.000000,00.00000,00.00000, 1
    133,    137,'1 ',  0.00170,  0.01170,  0.28900, 691.78, 899.32,   0.00,0.00000,000.000, 0.00000, 0.00000, 0.00000, 0.00000, 1
    133,    168,'1 ',  0.00260,  0.01930,  0.03000, 313.80, 407.94,   0.00,0.00000,000.000, 0.00000, 0.00000, 0.00000, 0.00000, 1
    133,    169,'1 ',  0.00210,  0.01860,  0.03000, 184.72, 240.13,   0.00,0.00000,000.000, 0.00000, 0.00000, 0.00000, 0.00000, 1
...
0 / END OF BRANCH DATA, BEGIN TRANSFORMER ADJUSTMENT DATA
      3,      1,'1 ',     1,1.100000,0.900000,1.100000,0.900000,0.002000,  0, 1,0.00000, 0.00000
      3,      2,'1 ',     2,1.100000,0.900000,1.100000,0.900000,0.002000,  0, 1,0.00000, 0.00000
      3,      4,'1 ',     4,1.100000,0.900000,1.100000,0.900000,0.002000,  0, 1,0.00000, 0.00000
      7,      5,'1 ',     5,1.100000,0.900000,1.100000,0.900000,0.002000,  0, 1,0.00000, 0.00000
      7,      6,'1 ',     6,1.100000,0.900000,1.100000,0.900000,0.002000,  0, 1,0.00000, 0.00000
     10,     11,'1 ',    11,1.100000,0.900000,1.100000,0.900000,0.002000,  0, 1,0.00000, 0.00000
     12,     10,'1 ',    10,1.100000,0.900000,1.100000,0.900000,0.002000,  0, 1,0.00000, 0.00000
     15,     17,'1 ',    17,1.100000,0.900000,1.100000,0.900000,0.002000,  0, 1,0.00000, 0.00000
     16,     15,'1 ',    15,1.100000,0.900000,1.100000,0.900000,0.002000,  0, 1,0.00000, 0.00000
     21,     20,'1 ',    20,1.100000,0.900000,1.100000,0.900000,0.002000,  0, 1,0.00000, 0.00000
     24,     23,'1 ',    23,1.100000,0.900000,1.100000,0.900000,0.002000,  0, 1,0.00000, 0.00000
     36,     35,'1 ',    35,1.100000,0.900000,1.100000,0.900000,0.002000,  0, 1,0.00000, 0.00000
     45,     44,'1 ',    44,1.100000,0.900000,1.100000,0.900000,0.002000,  0, 1,0.00000, 0.00000
     45,     46,'1 ',    46,1.100000,0.900000,1.100000,0.900000,0.002000,  0, 1,0.00000, 0.00000
     62,     61,'1 ',    61,1.100000,0.900000,1.100000,0.900000,0.002000,  0, 1,0.00000, 0.00000
     63,     64,'1 ',    64,1.100000,0.900000,1.100000,0.900000,0.002000,  0, 1,0.00000, 0.00000
     73,     74,'1 ',    74,1.100000,0.900000,1.100000,0.900000,0.002000,  0, 1,0.00000, 0.00000
     81,     88,'1 ',    88,1.100000,0.900000,1.100000,0.900000,0.002000,  0, 1,0.00000, 0.00000
     85,     99,'1 ',    99,1.100000,0.900000,1.100000,0.900000,0.002000,  0, 1,0.00000, 0.00000
     86,    102,'1 ',   102,1.100000,0.900000,1.100000,0.900000,0.002000,  0, 1,0.00000, 0.00000
     87,     94,'1 ',    94,1.100000,0.900000,1.100000,0.900000,0.002000,  0, 1,0.00000, 0.00000
    114,    207,'1 ',   207,1.100000,0.900000,1.100000,0.900000,0.002000,  0, 1,0.00000, 0.00000
    116,    124,'1 ',   124,1.100000,0.900000,1.100000,0.900000,0.002000,  0, 1,0.00000, 0.00000
    121,    115,'1 ',   115,1.100000,0.900000,1.100000,0.900000,0.002000,  0, 1,0.00000, 0.00000
    122,    157,'1 ',   157,1.100000,0.900000,1.100000,0.900000,0.002000,  0, 1,0.00000, 0.00000
    130,    131,'1 ',   131,1.100000,0.900000,1.100000,0.900000,0.002000,  0, 1,0.00000, 0.00000
    130,    150,'1 ',   150,1.100000,0.900000,1.100000,0.900000,0.002000,  0, 1,0.00000, 0.00000
    132,    170,'1 ',   170,1.100000,0.900000,1.100000,0.900000,0.002000,  0, 1,0.00000, 0.00000
    141,    174,'1 ',   174,1.100000,0.900000,1.100000,0.900000,0.002000,  0, 1,0.00000, 0.00000
    142,    175,'1 ',   175,1.100000,0.900000,1.100000,0.900000,0.002000,  0, 1,0.00000, 0.00000
    143,    144,'1 ',   144,1.100000,0.900000,1.100000,0.900000,0.002000,  0, 1,0.00000, 0.00000
    143,    148,'1 ',   148,1.100000,0.900000,1.100000,0.900000,0.002000,  0, 1,0.00000, 0.00000
    145,    180,'1 ',   180,1.100000,0.900000,1.100000,0.900000,0.002000,  0, 1,0.00000, 0.00000
    151,    170,'1 ',   170,1.100000,0.900000,1.100000,0.900000,0.002000,  0, 1,0.00000, 0.00000
    153,    183,'1 ',   183,1.100000,0.900000,1.100000,0.900000,0.002000,  0, 1,0.00000, 0.00000
    155,    156,'1 ',   156,1.100000,0.900000,1.100000,0.900000,0.002000,  0, 1,0.00000, 0.00000
    159,    117,'1 ',   117,1.100000,0.900000,1.100000,0.900000,0.002000,  0, 1,0.00000, 0.00000
    160,    124,'1 ',   124,1.100000,0.900000,1.100000,0.900000,0.002000,  0, 1,0.00000, 0.00000
    163,    137,'1 ',   137,1.100000,0.900000,1.100000,0.900000,0.002000,  0, 1,0.00000, 0.00000
    164,    155,'1 ',   155,1.100000,0.900000,1.100000,0.900000,0.002000,  0, 1,0.00000, 0.00000
    182,    139,'1 ',   139,1.100000,0.900000,1.100000,0.900000,0.002000,  0, 1,0.00000, 0.00000
    189,    210,'1 ',   210,1.100000,0.900000,1.100000,0.900000,0.002000,  0, 1,0.00000, 0.00000
    193,    196,'1 ',   196,1.100000,0.900000,1.100000,0.900000,0.002000,  0, 1,0.00000, 0.00000
    195,    212,'1 ',   212,1.100000,0.900000,1.100000,0.900000,0.002000,  0, 1,0.00000, 0.00000
    196,   2040,'1 ',   196,1.100000,-15.000000,85.000000,80.000000,8.050000,  0, 1,0.00000, 0.00000
    200,    248,'1 ',   248,1.100000,0.900000,1.100000,0.900000,0.002000,  0, 1,0.00000, 0.00000
    201,     69,'2 ',    69,1.100000,0.900000,1.100000,0.900000,0.002000,  0, 1,0.00000, 0.00000
    202,    211,'1 ',   211,1.100000,0.900000,1.100000,0.900000,0.002000,  0, 1,0.00000, 0.00000
    204,   2040,'1 ',   196,1.100000,0.900000,1.100000,0.900000,0.002000,  0, 1,0.00000, 0.00000
    209,    198,'1 ',   198,1.100000,0.900000,1.100000,0.900000,0.002000,  0, 1,0.00000, 0.00000
    211,    212,'1 ',   212,1.100000,0.900000,1.100000,0.900000,0.002000,  0, 1,0.00000, 0.00000
    218,    219,'1 ',   219,1.100000,0.900000,1.100000,0.900000,0.002000,  0, 1,0.00000, 0.00000
    223,    224,'1 ',   224,1.100000,0.900000,1.100000,0.900000,0.002000,  0, 1,0.00000, 0.00000
    229,    230,'1 ',   230,1.100000,0.900000,1.100000,0.900000,0.002000,  0, 1,0.00000, 0.00000
    234,    236,'1 ',   236,1.100000,0.900000,1.100000,0.900000,0.002000,  0, 1,0.00000, 0.00000
    238,    239,'1 ',   239,1.100000,0.900000,1.100000,0.900000,0.002000,  0, 1,0.00000, 0.00000
   9001,   9006,'1 ',  9006,1.147800,0.939100,1.010000,0.990000,0.004170,  0, 1,0.00000, 0.00000
   9001,   9012,'1 ',  9012,1.147800,0.939100,1.010000,0.990000,0.004170,  0, 1,0.00000, 0.00000
   9005,   9051,'1 ',  9051,1.147800,0.939100,1.010000,0.990000,0.004170,  0, 1,0.00000, 0.00000
   9005,   9052,'1 ',  9052,1.147800,0.939100,1.010000,0.990000,0.004170,  0, 1,0.00000, 0.00000
   9005,   9053,'1 ',  9053,1.147800,0.939100,1.010000,0.990000,0.004170,  0, 1,0.00000, 0.00000
0 / END OF TRANSFORMER ADJUSTMENT DATA, BEGIN AREA DATA
   1,      0,   100.0,  5.000,'0           '
   2,      0,   -40.0,  5.000,'0           '
   3,      0,   -60.0,  5.000,'0           '
   4,      0,     0.0,  5.000,'INFINITY    '
0 / END OF AREA DATA, BEGIN TWO-TERMINAL DC DATA
    1,   1,  6.200, -100.00, 460.0, 300.0,  0.000, 0.1000,'I'
    119,   4, 20.00, 15.00,  0.0000,  6.8000, 115.0,0.74760,0.993650,1.501500,0.510200,0.006160, 0,  0,   0,   1
    120,   4, 18.00, 20.00,  0.0000,  6.8000, 115.0,0.74760,0.972200,1.501500,0.510200,0.006160,  0,  0,   0,  1
0 / END OF TWO-TERMINAL DC DATA, BEGIN SWITCHED SHUNT DATA
0 / END OF SWITCHED SHUNT DATA, BEGIN IMPEDANCE CORRECTION DATA
0 / END OF IMPEDANCE CORRECTION DATA, BEGIN MULTI-TERMINAL DC DATA
0 / END OF MULTI-TERMINAL DC DATA, BEGIN MULTI-SECTION LINE DATA
0 / END OF MULTI-SECTION LINE DATA, BEGIN ZONE DATA
    1,'1           '
    2,'2           '
    3,'3           '
    9,'9           '
0 / END OF ZONE DATA, BEGIN INTER-AREA TRANSFER DATA
0 / END OF INTER-AREA TRANSFER DATA, BEGIN OWNER DATA
0 / END OF OWNER DATA, BEGIN FACTS DEVICE DATA
